tests/data/opendss_circuit_models/P4U/p4uhs0_4/p4uhs0_4--p4udt4/Transformers.dss
New Transformer.tr(r:p4udt4-p4udt4lv) phases=1 windings=3 %loadloss=0.798816 %Noloadloss=0.37 normhkva=55.0 wdg=1 conn=wye bus=p4udt4.2 Kv=2.309 kva=50.0 EmergHKVA=75.0 %r=0.266272 wdg=2 conn=wye bus=p4udt4lv.1.0 Kv=0.12 kva=50.0 EmergHKVA=75.0 %r=0.532544 wdg=3 conn=wye bus=p4udt4lv.0.2 Kv=0.12 kva=50.0 EmergHKVA=75.0 %r=0.532544 XHL=2.4 XLT=2.4 XHT=1.6

New Transformer.tr(r:p4udt5-p4udt5lv) phases=1 windings=3 %loadloss=0.798816 %Noloadloss=0.472 normhkva=27.5 wdg=1 conn=wye bus=p4udt5.1 Kv=2.309 kva=25.0 EmergHKVA=37.5 %r=0.266272 wdg=2 conn=wye bus=p4udt5lv.1.0 Kv=0.12 kva=25.0 EmergHKVA=37.5 %r=0.532544 wdg=3 conn=wye bus=p4udt5lv.0.2 Kv=0.12 kva=25.0 EmergHKVA=37.5 %r=0.532544 XHL=2.4 XLT=2.4 XHT=1.6

New Transformer.tr(r:p4udt9-p4udt9lv) phases=1 windings=3 %loadloss=0.798816 %Noloadloss=0.472 normhkva=27.5 wdg=1 conn=wye bus=p4udt9.1 Kv=2.309 kva=25.0 EmergHKVA=37.5 %r=0.266272 wdg=2 conn=wye bus=p4udt9lv.1.0 Kv=0.12 kva=25.0 EmergHKVA=37.5 %r=0.532544 wdg=3 conn=wye bus=p4udt9lv.0.2 Kv=0.12 kva=25.0 EmergHKVA=37.5 %r=0.532544 XHL=2.4 XLT=2.4 XHT=1.6

New Transformer.tr(r:p4udt15-p4udt15lv) phases=1 windings=3 %loadloss=0.798816 %Noloadloss=0.472 normhkva=27.5 wdg=1 conn=wye bus=p4udt15.2 Kv=2.309 kva=25.0 EmergHKVA=37.5 %r=0.266272 wdg=2 conn=wye bus=p4udt15lv.1.0 Kv=0.12 kva=25.0 EmergHKVA=37.5 %r=0.532544 wdg=3 conn=wye bus=p4udt15lv.0.2 Kv=0.12 kva=25.0 EmergHKVA=37.5 %r=0.532544 XHL=2.4 XLT=2.4 XHT=1.6

New Transformer.tr(r:p4udt16-p4udt16lv) phases=1 windings=3 %loadloss=0.798816 %Noloadloss=0.472 normhkva=27.5 wdg=1 conn=wye bus=p4udt16.3 Kv=2.309 kva=25.0 EmergHKVA=37.5 %r=0.266272 wdg=2 conn=wye bus=p4udt16lv.1.0 Kv=0.12 kva=25.0 EmergHKVA=37.5 %r=0.532544 wdg=3 conn=wye bus=p4udt16lv.0.2 Kv=0.12 kva=25.0 EmergHKVA=37.5 %r=0.532544 XHL=2.4 XLT=2.4 XHT=1.6

New Transformer.tr(r:p4udt18-p4udt18lv) phases=3 windings=2 %loadloss=1.74408 %Noloadloss=0.6 normhkva=82.5 wdg=1 conn=delta Kv=4.0 kva=75.0 EmergHKVA=112.5 %R=0.87204 bus=p4udt18 wdg=2 conn=wye Kv=0.48 kva=75.0 EmergHKVA=112.5 %R=0.87204 bus=p4udt18lv XHL=3.2400000000000007

New Transformer.tr(r:p4udt19-p4udt19lv) phases=1 windings=3 %loadloss=0.798816 %Noloadloss=0.472 normhkva=27.5 wdg=1 conn=wye bus=p4udt19.3 Kv=2.309 kva=25.0 EmergHKVA=37.5 %r=0.266272 wdg=2 conn=wye bus=p4udt19lv.1.0 Kv=0.12 kva=25.0 EmergHKVA=37.5 %r=0.532544 wdg=3 conn=wye bus=p4udt19lv.0.2 Kv=0.12 kva=25.0 EmergHKVA=37.5 %r=0.532544 XHL=2.4 XLT=2.4 XHT=1.6

New Transformer.tr(r:p4udt20-p4udt20lv) phases=1 windings=3 %loadloss=0.798816 %Noloadloss=0.472 normhkva=27.5 wdg=1 conn=wye bus=p4udt20.3 Kv=2.309 kva=25.0 EmergHKVA=37.5 %r=0.266272 wdg=2 conn=wye bus=p4udt20lv.1.0 Kv=0.12 kva=25.0 EmergHKVA=37.5 %r=0.532544 wdg=3 conn=wye bus=p4udt20lv.0.2 Kv=0.12 kva=25.0 EmergHKVA=37.5 %r=0.532544 XHL=2.4 XLT=2.4 XHT=1.6

New Transformer.tr(r:p4udt21-p4udt21lv) phases=3 windings=2 %loadloss=2.1568 %Noloadloss=0.516667 normhkva=165.0 wdg=1 conn=delta Kv=4.0 kva=150.0 EmergHKVA=225.0 %R=1.0784 bus=p4udt21 wdg=2 conn=wye Kv=0.48 kva=150.0 EmergHKVA=225.0 %R=1.0784 bus=p4udt21lv XHL=3.39

New Transformer.tr(r:p4udt22-p4udt22lv) phases=3 windings=2 %loadloss=1.74408 %Noloadloss=0.6 normhkva=82.5 wdg=1 conn=delta Kv=4.0 kva=75.0 EmergHKVA=112.5 %R=0.87204 bus=p4udt22 wdg=2 conn=wye Kv=0.48 kva=75.0 EmergHKVA=112.5 %R=0.87204 bus=p4udt22lv XHL=3.2400000000000007

New Transformer.tr(r:p4udt24-p4udt24lv) phases=3 windings=2 %loadloss=2.1568 %Noloadloss=0.516667 normhkva=165.0 wdg=1 conn=delta Kv=4.0 kva=150.0 EmergHKVA=225.0 %R=1.0784 bus=p4udt24 wdg=2 conn=wye Kv=0.48 kva=150.0 EmergHKVA=225.0 %R=1.0784 bus=p4udt24lv XHL=3.39

New Transformer.tr(r:p4udt25-p4udt25lv) phases=1 windings=3 %loadloss=0.798816 %Noloadloss=0.472 normhkva=27.5 wdg=1 conn=wye bus=p4udt25.1 Kv=2.309 kva=25.0 EmergHKVA=37.5 %r=0.266272 wdg=2 conn=wye bus=p4udt25lv.1.0 Kv=0.12 kva=25.0 EmergHKVA=37.5 %r=0.532544 wdg=3 conn=wye bus=p4udt25lv.0.2 Kv=0.12 kva=25.0 EmergHKVA=37.5 %r=0.532544 XHL=2.4 XLT=2.4 XHT=1.6

New Transformer.tr(r:p4udt27-p4udt27lv) phases=1 windings=3 %loadloss=0.798816 %Noloadloss=0.472 normhkva=27.5 wdg=1 conn=wye bus=p4udt27.2 Kv=2.309 kva=25.0 EmergHKVA=37.5 %r=0.266272 wdg=2 conn=wye bus=p4udt27lv.1.0 Kv=0.12 kva=25.0 EmergHKVA=37.5 %r=0.532544 wdg=3 conn=wye bus=p4udt27lv.0.2 Kv=0.12 kva=25.0 EmergHKVA=37.5 %r=0.532544 XHL=2.4 XLT=2.4 XHT=1.6

