tests/data/opendss_circuit_models/P4U/p4uhs0_4/p4uhs0_4--p4udt0/Transformers.dss
New Transformer.tr(r:p4udt0-p4udt0lv) phases=1 windings=3 %loadloss=0.798816 %Noloadloss=0.472 normhkva=27.5 wdg=1 conn=wye bus=p4udt0.2 Kv=2.309 kva=25.0 EmergHKVA=37.5 %r=0.266272 wdg=2 conn=wye bus=p4udt0lv.1.0 Kv=0.12 kva=25.0 EmergHKVA=37.5 %r=0.532544 wdg=3 conn=wye bus=p4udt0lv.0.2 Kv=0.12 kva=25.0 EmergHKVA=37.5 %r=0.532544 XHL=2.4 XLT=2.4 XHT=1.6

New Transformer.tr(r:p4udt1-p4udt1lv) phases=3 windings=2 %loadloss=1.59763 %Noloadloss=0.2 normhkva=1100.0 wdg=1 conn=delta Kv=4.0 kva=1000.0 EmergHKVA=1500.0 %R=0.798815 bus=p4udt1 wdg=2 conn=wye Kv=0.48 kva=1000.0 EmergHKVA=1500.0 %R=0.798815 bus=p4udt1lv XHL=5.62

New Transformer.tr(r:p4udt2-p4udt2lv) phases=3 windings=2 %loadloss=1.4645 %Noloadloss=0.266 normhkva=550.0 wdg=1 conn=delta Kv=4.0 kva=500.0 EmergHKVA=750.0 %R=0.73225 bus=p4udt2 wdg=2 conn=wye Kv=0.48 kva=500.0 EmergHKVA=750.0 %R=0.73225 bus=p4udt2lv XHL=4.36

New Transformer.tr(r:p4udt7-p4udt7lv) phases=1 windings=3 %loadloss=0.49926 %Noloadloss=0.38 normhkva=82.5 wdg=1 conn=wye bus=p4udt7.1 Kv=2.309 kva=75.0 EmergHKVA=112.5 %r=0.16642 wdg=2 conn=wye bus=p4udt7lv.1.0 Kv=0.12 kva=75.0 EmergHKVA=112.5 %r=0.33284 wdg=3 conn=wye bus=p4udt7lv.0.2 Kv=0.12 kva=75.0 EmergHKVA=112.5 %r=0.33284 XHL=2.4 XLT=2.4 XHT=1.6

New Transformer.tr(r:p4udt8-p4udt8lv) phases=3 windings=2 %loadloss=2.1568 %Noloadloss=0.516667 normhkva=165.0 wdg=1 conn=delta Kv=4.0 kva=150.0 EmergHKVA=225.0 %R=1.0784 bus=p4udt8 wdg=2 conn=wye Kv=0.48 kva=150.0 EmergHKVA=225.0 %R=1.0784 bus=p4udt8lv XHL=3.39

New Transformer.tr(r:p4udt10-p4udt10lv) phases=1 windings=3 %loadloss=0.798816 %Noloadloss=0.37 normhkva=55.0 wdg=1 conn=wye bus=p4udt10.3 Kv=2.309 kva=50.0 EmergHKVA=75.0 %r=0.266272 wdg=2 conn=wye bus=p4udt10lv.1.0 Kv=0.12 kva=50.0 EmergHKVA=75.0 %r=0.532544 wdg=3 conn=wye bus=p4udt10lv.0.2 Kv=0.12 kva=50.0 EmergHKVA=75.0 %r=0.532544 XHL=2.4 XLT=2.4 XHT=1.6

New Transformer.tr(r:p4udt11-p4udt11lv) phases=1 windings=3 %loadloss=1.248151 %Noloadloss=0.68 normhkva=11.0 wdg=1 conn=wye bus=p4udt11.2 Kv=2.309 kva=10.0 EmergHKVA=15.0 %r=0.41605 wdg=2 conn=wye bus=p4udt11lv.1.0 Kv=0.12 kva=10.0 EmergHKVA=15.0 %r=0.832101 wdg=3 conn=wye bus=p4udt11lv.0.2 Kv=0.12 kva=10.0 EmergHKVA=15.0 %r=0.832101 XHL=1.08 XLT=1.08 XHT=0.72

New Transformer.tr(r:p4udt12-p4udt12lv) phases=1 windings=3 %loadloss=0.798816 %Noloadloss=0.472 normhkva=27.5 wdg=1 conn=wye bus=p4udt12.2 Kv=2.309 kva=25.0 EmergHKVA=37.5 %r=0.266272 wdg=2 conn=wye bus=p4udt12lv.1.0 Kv=0.12 kva=25.0 EmergHKVA=37.5 %r=0.532544 wdg=3 conn=wye bus=p4udt12lv.0.2 Kv=0.12 kva=25.0 EmergHKVA=37.5 %r=0.532544 XHL=2.4 XLT=2.4 XHT=1.6

New Transformer.tr(r:p4udt13-p4udt13lv) phases=1 windings=3 %loadloss=0.798816 %Noloadloss=0.472 normhkva=27.5 wdg=1 conn=wye bus=p4udt13.1 Kv=2.309 kva=25.0 EmergHKVA=37.5 %r=0.266272 wdg=2 conn=wye bus=p4udt13lv.1.0 Kv=0.12 kva=25.0 EmergHKVA=37.5 %r=0.532544 wdg=3 conn=wye bus=p4udt13lv.0.2 Kv=0.12 kva=25.0 EmergHKVA=37.5 %r=0.532544 XHL=2.4 XLT=2.4 XHT=1.6

New Transformer.tr(r:p4udt14-p4udt14lv) phases=3 windings=2 %loadloss=1.59763 %Noloadloss=0.2 normhkva=1100.0 wdg=1 conn=delta Kv=4.0 kva=1000.0 EmergHKVA=1500.0 %R=0.798815 bus=p4udt14 wdg=2 conn=wye Kv=0.48 kva=1000.0 EmergHKVA=1500.0 %R=0.798815 bus=p4udt14lv XHL=5.62

New Transformer.tr(r:p4udt17-p4udt17lv) phases=1 windings=3 %loadloss=0.798816 %Noloadloss=0.472 normhkva=27.5 wdg=1 conn=wye bus=p4udt17.2 Kv=2.309 kva=25.0 EmergHKVA=37.5 %r=0.266272 wdg=2 conn=wye bus=p4udt17lv.1.0 Kv=0.12 kva=25.0 EmergHKVA=37.5 %r=0.532544 wdg=3 conn=wye bus=p4udt17lv.0.2 Kv=0.12 kva=25.0 EmergHKVA=37.5 %r=0.532544 XHL=2.4 XLT=2.4 XHT=1.6

New Transformer.tr(r:p4udt23-p4udt23lv) phases=3 windings=2 %loadloss=1.74408 %Noloadloss=0.6 normhkva=82.5 wdg=1 conn=delta Kv=4.0 kva=75.0 EmergHKVA=112.5 %R=0.87204 bus=p4udt23 wdg=2 conn=wye Kv=0.48 kva=75.0 EmergHKVA=112.5 %R=0.87204 bus=p4udt23lv XHL=3.2400000000000007

New Transformer.tr(r:p4udt26-p4udt26lv) phases=3 windings=2 %loadloss=2.1568 %Noloadloss=0.516667 normhkva=165.0 wdg=1 conn=delta Kv=4.0 kva=150.0 EmergHKVA=225.0 %R=1.0784 bus=p4udt26 wdg=2 conn=wye Kv=0.48 kva=150.0 EmergHKVA=225.0 %R=1.0784 bus=p4udt26lv XHL=3.39

