tests/data/opendss_circuit_models/P4U/subtransmission/LineCodes.dss
New Linecode.3P_OH_AL_ACSR_477kcmil_Hawk_3 units=km nphases=3 Faultrate=0.1 Rmatrix=(0.1731667 0.05066667 0.05066667 | 0.05066667 0.1731667 0.05066667 | 0.05066667 0.05066667 0.1731667 ) Xmatrix=(0.5780332999999999 0.1957333 0.1957333 | 0.1957333 0.5780332999999999 0.1957333 | 0.1957333 0.1957333 0.5780332999999999 ) Cmatrix=(8.040433 -3.535467 -3.535467 | -3.535467 8.040433 -3.535467 | -3.535467 -3.535467 8.040433 ) normamps=595.0

New Linecode.breaker_3 units=km nphases=3 Faultrate=0.1 Rmatrix=(0.001 0.0 0.0 | 0.0 0.001 0.0 | 0.0 0.0 0.001 ) Xmatrix=(0.001 0.0 0.0 | 0.0 0.001 0.0 | 0.0 0.0 0.001 ) Cmatrix=(3.499563 -0.1093613 -0.1093613 | -0.1093613 3.499563 -0.1093613 | -0.1093613 -0.1093613 3.499563 ) normamps=595.0

New Linecode.breaker_3_1 units=km nphases=3 Faultrate=0.1 Rmatrix=(0.001 0.0 0.0 | 0.0 0.001 0.0 | 0.0 0.0 0.001 ) Xmatrix=(0.001 0.0 0.0 | 0.0 0.001 0.0 | 0.0 0.0 0.001 ) Cmatrix=(3.499563 -0.1093613 -0.1093613 | -0.1093613 3.499563 -0.1093613 | -0.1093613 -0.1093613 3.499563 ) normamps=285.0

