tests/data/opendss_circuit_models/P4U/p4uhs0_4/Lines.dss
New Line.sb5_p4uhs0_4_457 Units=km Length=0.003023488 bus1=sb5_p4uhs0_4_bus_5_7.1.2.3 bus2=p4udt0-p4uhs0_4x.1.2.3 switch=n enabled=y phases=3 Linecode=3P_OH_Code_3

New Line.sb5_p4uhs0_4_450 Units=km Length=0.003023488 bus1=sb5_p4uhs0_4_bus_5_5.1.2.3 bus2=p4udt6-p4uhs0_4x.1.2.3 switch=n enabled=y phases=3 Linecode=3P_OH_Code_3

New Line.sb5_p4uhs0_4_449 Units=km Length=0.003023488 bus1=sb5_p4uhs0_4_bus_5_4.1.2.3 bus2=sb5_p4uhs0_4_node_5_1.1.2.3 switch=n enabled=y phases=3 Linecode=3P_OH_Code_3

New Line.sb5_p4uhs0_4_451 Units=km Length=0.003023488 bus1=sb5_p4uhs0_4_bus_5_6.1.2.3 bus2=p4udt4-p4uhs0_4x.1.2.3 switch=n enabled=y phases=3 Linecode=3P_OH_Code_3

New Line.sb5_p4uhs0_4_445 Units=km Length=0.001 bus1=sb5_p4uhs0_4_node_5_20.1.2.3 bus2=sb5_p4uhs0_4_bus_5_6.1.2.3 switch=y enabled=y phases=3 Linecode=DISCONNECT_SWITCH_4KV_3

New Line.sb5_p4uhs0_4_447 Units=km Length=0.001 bus1=sb5_p4uhs0_4_bus_5_4.1.2.3 bus2=sb5_p4uhs0_4_bus_5_3.1.2.3 switch=y enabled=n phases=3 Linecode=DISCONNECT_SWITCH_4KV_3

New Line.sb5_p4uhs0_4_455 Units=km Length=0.001 bus1=sb5_p4uhs0_4_bus_5_7.1.2.3 bus2=sb5_p4uhs0_4_bus_5_3.1.2.3 switch=y enabled=n phases=3 Linecode=DISCONNECT_SWITCH_4KV_3

New Line.sb5_p4uhs0_4_441 Units=km Length=0.001 bus1=sb5_p4uhs0_4_node_5_15.1.2.3 bus2=sb5_p4uhs0_4_node_5_19.1.2.3 switch=y enabled=y phases=3 Linecode=BREAKER_4KV_3

New Line.sb5_p4uhs0_4_443 Units=km Length=0.001 bus1=sb5_p4uhs0_4_node_5_18.1.2.3 bus2=sb5_p4uhs0_4_bus_5_4.1.2.3 switch=y enabled=y phases=3 Linecode=DISCONNECT_SWITCH_4KV_3

New Line.sb5_p4uhs0_4_431 Units=km Length=0.001 bus1=sb5_p4uhs0_4_node_5_16.1.2.3 bus2=sb5_p4uhs0_4_bus_5_2.1.2.3 switch=y enabled=y phases=3 Linecode=DISCONNECT_SWITCH_4KV_3

New Line.sb5_p4uhs0_4_433 Units=km Length=0.001 bus1=sb5_p4uhs0_4_node_5_11.1.2.3 bus2=sb5_p4uhs0_4_node_5_12.1.2.3 switch=y enabled=y phases=3 Linecode=BREAKER_69KV_3

New Line.sb5_p4uhs0_4_429 Units=km Length=0.001 bus1=sb5_p4uhs0_4_node_5_15.1.2.3 bus2=sb5_p4uhs0_4_bus_5_2.1.2.3 switch=y enabled=y phases=3 Linecode=DISCONNECT_SWITCH_4KV_3

New Line.sb5_p4uhs0_4_456 Units=km Length=0.001 bus1=sb5_p4uhs0_4_node_5_17.1.2.3 bus2=sb5_p4uhs0_4_bus_5_2.1.2.3 switch=y enabled=y phases=3 Linecode=DISCONNECT_SWITCH_4KV_3

New Line.sb5_p4uhs0_4_435 Units=km Length=0.001 bus1=sb5_p4uhs0_4_node_5_7.1.2.3 bus2=sb5_p4uhs0_4_bus_5_1.1.2.3 switch=y enabled=y phases=3 Linecode=DISCONNECT_SWITCH_69KV_3

New Line.sb5_p4uhs0_4_444 Units=km Length=0.001 bus1=sb5_p4uhs0_4_node_5_19.1.2.3 bus2=sb5_p4uhs0_4_bus_5_5.1.2.3 switch=y enabled=y phases=3 Linecode=DISCONNECT_SWITCH_4KV_3

New Line.sb5_p4uhs0_4_454 Units=km Length=0.001 bus1=sb5_p4uhs0_4_node_5_21.1.2.3 bus2=sb5_p4uhs0_4_bus_5_7.1.2.3 switch=y enabled=y phases=3 Linecode=DISCONNECT_SWITCH_4KV_3

New Line.sb5_p4uhs0_4_446 Units=km Length=0.001 bus1=sb5_p4uhs0_4_bus_5_5.1.2.3 bus2=sb5_p4uhs0_4_bus_5_3.1.2.3 switch=y enabled=n phases=3 Linecode=DISCONNECT_SWITCH_4KV_3

New Line.sb5_p4uhs0_4_440 Units=km Length=0.001 bus1=sb5_p4uhs0_4_node_5_14.1.2.3 bus2=sb5_p4uhs0_4_node_5_18.1.2.3 switch=y enabled=y phases=3 Linecode=BREAKER_4KV_3

New Line.sb5_p4uhs0_4_426 Units=km Length=0.001 bus1=sb5_p4uhs0_4_node_5_6.1.2.3 bus2=p4uhs0_69.1.2.3 switch=y enabled=y phases=3 Linecode=DISCONNECT_SWITCH_69KV_3

New Line.sb5_p4uhs0_4_442 Units=km Length=0.001 bus1=sb5_p4uhs0_4_node_5_16.1.2.3 bus2=sb5_p4uhs0_4_node_5_20.1.2.3 switch=y enabled=y phases=3 Linecode=BREAKER_4KV_3

New Line.sb5_p4uhs0_4_430 Units=km Length=0.001 bus1=sb5_p4uhs0_4_node_5_14.1.2.3 bus2=sb5_p4uhs0_4_bus_5_2.1.2.3 switch=y enabled=y phases=3 Linecode=DISCONNECT_SWITCH_4KV_3

New Line.sb5_p4uhs0_4_453 Units=km Length=0.001 bus1=sb5_p4uhs0_4_node_5_17.1.2.3 bus2=sb5_p4uhs0_4_node_5_21.1.2.3 switch=y enabled=y phases=3 Linecode=BREAKER_4KV_3

New Line.sb5_p4uhs0_4_432 Units=km Length=0.001 bus1=sb5_p4uhs0_4_bus_5_2.1.2.3 bus2=sb5_p4uhs0_4_node_5_13.1.2.3 switch=y enabled=y phases=3 Linecode=BREAKER_4KV_3

New Line.sb5_p4uhs0_4_434 Units=km Length=0.001 bus1=sb5_p4uhs0_4_node_5_6.1.2.3 bus2=sb5_p4uhs0_4_node_5_7.1.2.3 switch=y enabled=y phases=3 Linecode=BREAKER_69KV_3

New Line.sb5_p4uhs0_4_428 Units=km Length=0.001 bus1=sb5_p4uhs0_4_node_5_11.1.2.3 bus2=sb5_p4uhs0_4_bus_5_1.1.2.3 switch=y enabled=y phases=3 Linecode=DISCONNECT_SWITCH_69KV_3

New Line.sb5_p4uhs0_4_448 Units=km Length=0.001 bus1=sb5_p4uhs0_4_bus_5_6.1.2.3 bus2=sb5_p4uhs0_4_bus_5_3.1.2.3 switch=y enabled=n phases=3 Linecode=DISCONNECT_SWITCH_4KV_3

